
     RDKit          3D

 16 17  0  0  0  0  0  0  0  0999 V2000
    2.1462   -0.0037   -0.4962 C   0  0  0  0  0  0  0  0  0  0  0  0
    1.1850   -0.9531   -0.6650 C   0  0  0  0  0  0  0  0  0  0  0  0
   -0.1233   -0.7368   -0.2745 C   0  0  0  0  0  0  0  0  0  0  0  0
   -0.4521    0.4752    0.2996 C   0  0  0  0  0  0  0  0  0  0  0  0
   -1.8029    0.3863    0.5744 C   0  0  0  0  0  0  0  0  0  0  0  0
   -2.2897   -0.8454    0.1802 C   0  0  0  0  0  0  0  0  0  0  0  0
   -1.2432   -1.5038   -0.3317 N   0  0  0  0  0  0  0  0  0  0  0  0
    0.5185    1.4399    0.4725 C   0  0  0  0  0  0  0  0  0  0  0  0
    1.8201    1.2179    0.0812 C   0  0  0  0  0  0  0  0  0  0  0  0
    0.0108    3.0894    1.2677 Br  0  0  0  0  0  0  0  0  0  0  0  0
    3.1528   -0.2123   -0.8140 H   0  0  0  0  0  0  0  0  0  0  0  0
    1.4206   -1.9255   -1.1191 H   0  0  0  0  0  0  0  0  0  0  0  0
   -2.3505    1.1943    1.0328 H   0  0  0  0  0  0  0  0  0  0  0  0
   -3.3209   -1.1519    0.2919 H   0  0  0  0  0  0  0  0  0  0  0  0
   -1.2496   -2.4507   -0.7195 H   0  0  0  0  0  0  0  0  0  0  0  0
    2.5782    1.9803    0.2199 H   0  0  0  0  0  0  0  0  0  0  0  0
  1  2  2  0
  2  3  1  0
  3  4  2  0
  4  5  1  0
  5  6  2  0
  6  7  1  0
  4  8  1  0
  8  9  2  0
  8 10  1  0
  9  1  1  0
  7  3  1  0
  1 11  1  0
  2 12  1  0
  5 13  1  0
  6 14  1  0
  7 15  1  0
  9 16  1  0
M  END
