@<TRIPOS>MOLECULE
*****
 16 17 0 0 0
SMALL
GASTEIGER

@<TRIPOS>ATOM
      1 C           2.1462   -0.0037   -0.4962 C.ar    1  UNL1       -0.0587
      2 C           1.1850   -0.9531   -0.6650 C.ar    1  UNL1       -0.0377
      3 C          -0.1233   -0.7368   -0.2745 C.ar    1  UNL1        0.0475
      4 C          -0.4521    0.4752    0.2996 C.ar    1  UNL1        0.0136
      5 C          -1.8029    0.3863    0.5744 C.ar    1  UNL1       -0.0356
      6 C          -2.2897   -0.8454    0.1802 C.ar    1  UNL1        0.0028
      7 N          -1.2432   -1.5038   -0.3317 N.ar    1  UNL1       -0.3606
      8 C           0.5185    1.4399    0.4725 C.ar    1  UNL1        0.0270
      9 C           1.8201    1.2179    0.0812 C.ar    1  UNL1       -0.0471
     10 BR          0.0108    3.0894    1.2677 Br      1  UNL1       -0.0496
     11 H           3.1528   -0.2123   -0.8140 H       1  UNL1        0.0619
     12 H           1.4206   -1.9255   -1.1191 H       1  UNL1        0.0638
     13 H          -2.3505    1.1943    1.0328 H       1  UNL1        0.0639
     14 H          -3.3209   -1.1519    0.2919 H       1  UNL1        0.0807
     15 H          -1.2496   -2.4507   -0.7195 H       1  UNL1        0.1653
     16 H           2.5782    1.9803    0.2199 H       1  UNL1        0.0629
@<TRIPOS>BOND
     1     1     2   ar
     2     2     3   ar
     3     3     4   ar
     4     4     5   ar
     5     5     6   ar
     6     6     7   ar
     7     4     8   ar
     8     8     9   ar
     9     8    10    1
    10     9     1   ar
    11     7     3   ar
    12     1    11    1
    13     2    12    1
    14     5    13    1
    15     6    14    1
    16     7    15    1
    17     9    16    1
