@<TRIPOS>MOLECULE
*****
   16    17     1     0     0
SMALL
bcc


@<TRIPOS>ATOM
      1 C            2.1460    -0.0040    -0.4960 ca         1 UNL      -0.117000
      2 C1           1.1850    -0.9530    -0.6650 ca         1 UNL      -0.132000
      3 C2          -0.1230    -0.7370    -0.2750 ca         1 UNL      -0.047200
      4 C3          -0.4520     0.4750     0.3000 ca         1 UNL      -0.074800
      5 C4          -1.8030     0.3860     0.5740 cc         1 UNL      -0.181200
      6 C5          -2.2900    -0.8450     0.1800 cd         1 UNL      -0.102100
      7 N           -1.2430    -1.5040    -0.3320 na         1 UNL      -0.193400
      8 C6           0.5180     1.4400     0.4720 ca         1 UNL       0.020100
      9 C7           1.8200     1.2180     0.0810 ca         1 UNL      -0.129000
     10 Br           0.0110     3.0890     1.2680 br         1 UNL      -0.090100
     11 H            3.1530    -0.2120    -0.8140 ha         1 UNL       0.135000
     12 H1           1.4210    -1.9250    -1.1190 ha         1 UNL       0.135000
     13 H2          -2.3500     1.1940     1.0330 ha         1 UNL       0.167000
     14 H3          -3.3210    -1.1520     0.2920 h4         1 UNL       0.167000
     15 H4          -1.2500    -2.4510    -0.7200 hn         1 UNL       0.299700
     16 H5           2.5780     1.9800     0.2200 ha         1 UNL       0.143000
@<TRIPOS>BOND
     1     1     2 ar  
     2     2     3 ar  
     3     3     4 ar  
     4     4     5 1   
     5     5     6 2   
     6     6     7 1   
     7     4     8 ar  
     8     8     9 ar  
     9     8    10 1   
    10     9     1 ar  
    11     7     3 1   
    12     1    11 1   
    13     2    12 1   
    14     5    13 1   
    15     6    14 1   
    16     7    15 1   
    17     9    16 1   
@<TRIPOS>SUBSTRUCTURE
     1 UNL         1 TEMP              0 ****  ****    0 ROOT
